
/*--------------------------------*- C++ -*----------------------------------*\
| =========                 |                                                 |
| \\      /  F ield         | OpenFOAM: The Open Source CFD Toolbox           |
|  \\    /   O peration     | Version:  v2006                                 |
|   \\  /    A nd           | Website:  www.openfoam.com                      |
|    \\/     M anipulation  |                                                 |
\*---------------------------------------------------------------------------*/
FoamFile
{
    version     2.0;
    format      ascii;
    class       dictionary;
    location    "system";
    object      fvSolution;
}
// * * * * * * * * * * * * * * * * * * * * * * * * * * * * * * * * * * * * * //

solvers
{
    "alpha.water.*"
    {
        nAlphaCorr      1;
        nAlphaSubCycles 3;
        cAlpha          1;

        MULESCorr       no;
        nLimiterIter    5;

        solver          smoothSolver;
        smoother        symGaussSeidel;
        tolerance       1e-8;
        relTol          0;
    }

    "pcorr.*"
    {
        solver          PCG;
        preconditioner  DIC;
        tolerance       1e-5;
        relTol          0;
    }

    p_rgh
    {
        solver          GAMG;
        tolerance       1e-08;
        relTol          1E-6;
        smoother        DICGaussSeidel;
        nPreSweeps      0;
        nPostSweeps     2;
        cacheAgglomeration true;
        nCellsInCoarsestLevel 10;
        agglomerator    faceAreaPair;
        mergeLevels     1;
                maxIter                 25;
    }


    p_rghFinal
    {
        solver          PCG;
        preconditioner
        {
            preconditioner  GAMG;
            tolerance       1e-08;
            relTol          0;
            nVcycles        2;
            smoother        DICGaussSeidel;
            nPreSweeps      0;
            nPostSweeps     2;
            nFinestSweeps   2;
            cacheAgglomeration false;
            nCellsInCoarsestLevel 10;
            agglomerator    faceAreaPair;
            mergeLevels     1;
        }
        tolerance       1e-08;
        relTol          0;
        maxIter         25;
    }

    "mDot|qL|qV"
    {
        solver          PCG;
        preconditioner
        {
            preconditioner  GAMG;
            tolerance       1e-08;
            relTol          0;
            nVcycles        2;
            smoother        DICGaussSeidel;
            nPreSweeps      0;
            nPostSweeps     2;
            nFinestSweeps   2;
            cacheAgglomeration false;
            nCellsInCoarsestLevel 10;
            agglomerator    faceAreaPair;
            mergeLevels     1;
        }
        tolerance       1e-08;
        relTol          0;
        maxIter         25;
    }

    "(mDot|qL|qV)Final"
    {
        solver          PCG;
        preconditioner
        {
            preconditioner  GAMG;
            tolerance       1e-08;
            relTol          0;
            nVcycles        2;
            smoother        DICGaussSeidel;
            nPreSweeps      0;
            nPostSweeps     2;
            nFinestSweeps   2;
            cacheAgglomeration false;
            nCellsInCoarsestLevel 10;
            agglomerator    faceAreaPair;
            mergeLevels     1;
        }
        tolerance       1e-08;
        relTol          0;
        maxIter         25;
    }
    U
    {
        solver          smoothSolver;
        smoother        symGaussSeidel;
        tolerance       1e-06;
        relTol          0;
    }
    // T
    // {
    //     solver          PBiCG;
    //     preconditioner  DILU;
    //     tolerance       1e-08;
    //     relTol          0;
    // }
    // TFinal
    // {
    //     solver          PBiCG;
    //     preconditioner  DILU;
    //     tolerance       1e-08;
    //     relTol          0;
    // }
    // "TV|TL"
    // {
    //     solver          smoothSolver;
    //     smoother  symGaussSeidel;
    //     tolerance       1e-10;
    //     relTol          0.0;
		// 		minIter 5;
		// 		maxIter 50;
    // }
    // "(TV|TL)Final"
    // {
    //     solver          smoothSolver;
    //     smoother  symGaussSeidel;
    //     tolerance       1e-08;
    //     relTol          0.0;
		// 		maxIter 50;
    // }
    "TV|TL"
    {
        solver          PBiCGStab;
        preconditioner  DILU;
        tolerance       1e-10;
        relTol          0.0;
				minIter 5;
				maxIter 50;
    }
    "(TV|TL)Final"
    {
        solver          PBiCGStab;
        preconditioner  DILU;
        tolerance       1e-08;
        relTol          0.0;
				maxIter 50;
    }
}

PISO
{
    nCorrectors         3;
    nNonOrthogonalCorrectors 0;
    nEnergyLoops    1;
		pRefCell 0;
		pRefValue 0;
}

relaxationFactors
{
    equations
    {
        ".*" 1.0;
    }
}


// ************************************************************************* //
